Circuit: * C:\Users\harsh\Desktop\ew2\fullCircuit.asc

Warning: Multiple definitions of model "2scr375p" Type: BJT
Warning: Multiple definitions of model "bc857b" Type: BJT
Warning: Multiple definitions of model "bc847c" Type: BJT
Warning: Multiple definitions of model "bc847b" Type: BJT
Direct Newton iteration for .op point succeeded.

max: MAX(d(v(out)))=19900.4 FROM 0 TO 0.01


Date: Mon Apr  7 19:41:57 2025
Total elapsed time: 0.348 seconds.

tnom = 27
temp = 27
method = modified trap
totiter = 2163
traniter = 2149
tranpoints = 1053
accept = 1049
rejected = 4
matrix size = 61
fillins = 59
solver = Normal
Avg thread counts: 3.7/6.6/6.6/3.7
Matrix Compiler1: 6.88 KB object code size  1.3/0.7/[0.5]
Matrix Compiler2: 6.25 KB object code size  0.5/1.1/[0.4]

